networks/opendss/CKT_8682_02674.dss
! OpenDSS script generated from multiconductor network
Clear

New Circuit.mc_network basekv=16.0 pu=1.000000 angle=0.00 frequency=60.0 phases=3 Mvasc3=255987 Mvasc1=85329.1
~ bus1=-88888814778751.1.2.3

! Line codes
New LineCode.653_ACSR_3PH_653_ACSR_N_16KV_4 nphases=4 units=km Rmatrix=[ 0.016218 | 0 0.016218 | 0 0 0.016218 | 0 0 0 0.016218 ] Xmatrix=[ 0.055142 | 0 0.055142 | 0 0 0.055142 | 0 0 0 0.055142 ] Cmatrix=[ 0 | 0 0 | 0 0 0 | 0 0 0 0 ]
New LineCode.653_ACSR_2PH_16KV_2 nphases=2 units=km Rmatrix=[ 0.000411 | 0 0.000411 ] Xmatrix=[ 0.001595 | 0 0.001595 ] Cmatrix=[ 0 | 0 0 ]
New LineCode.4_ACSR_3PH_16KV_3 nphases=3 units=km Rmatrix=[ 0.109014 | 0 0.109014 | 0 0 0.109014 ] Xmatrix=[ 0.040002 | 0 0.040002 | 0 0 0.040002 ] Cmatrix=[ 0 | 0 0 | 0 0 0 ]
New LineCode.653_ACSR_3PH_16KV_3 nphases=3 units=km Rmatrix=[ 0.000914 | 0 0.000914 | 0 0 0.000914 ] Xmatrix=[ 0.003546 | 0 0.003546 | 0 0 0.003546 ] Cmatrix=[ 0 | 0 0 | 0 0 0 ]
New LineCode.653_ACSR_2PH_653_ACSR_N_16KV_3_N nphases=3 units=km Rmatrix=[ 0.000361 | 0 0.000361 | 0 0 0.000361 ] Xmatrix=[ 0.001227 | 0 0.001227 | 0 0 0.001227 ] Cmatrix=[ 0 | 0 0 | 0 0 0 ]
New LineCode.336_ACSR_3PH_16KV_3 nphases=3 units=km Rmatrix=[ 0.064372 | 0 0.064372 | 0 0 0.064372 ] Xmatrix=[ 0.144152 | 0 0.144152 | 0 0 0.144152 ] Cmatrix=[ 0 | 0 0 | 0 0 0 ]
New LineCode.__3PH_16KV_3 nphases=3 units=km Rmatrix=[ 1e-05 | 0 1e-05 | 0 0 1e-05 ] Xmatrix=[ 1e-05 | 0 1e-05 | 0 0 1e-05 ] Cmatrix=[ 0 | 0 0 | 0 0 0 ]
New LineCode.2_ACSR_3PH_2_ACSR_N_16KV_4 nphases=4 units=km Rmatrix=[ 0.035761 | 0 0.035761 | 0 0 0.035761 | 0 0 0 0.035761 ] Xmatrix=[ 0.017326 | 0 0.017326 | 0 0 0.017326 | 0 0 0 0.017326 ] Cmatrix=[ 0 | 0 0 | 0 0 0 | 0 0 0 0 ]
New LineCode.336_ACSR_3PH_336_ACSR_N_16KV_4 nphases=4 units=km Rmatrix=[ 0.013416 | 0 0.013416 | 0 0 0.013416 | 0 0 0 0.013416 ] Xmatrix=[ 0.026754 | 0 0.026754 | 0 0 0.026754 | 0 0 0 0.026754 ] Cmatrix=[ 0 | 0 0 | 0 0 0 | 0 0 0 0 ]
New LineCode.6_CU_3PH_16KV_3 nphases=3 units=km Rmatrix=[ 0.079857 | 0 0.079857 | 0 0 0.079857 ] Xmatrix=[ 0.028306 | 0 0.028306 | 0 0 0.028306 ] Cmatrix=[ 0 | 0 0 | 0 0 0 ]
New LineCode.336_ACSR_2PH_336_ACSR_N_16KV_3_N nphases=3 units=km Rmatrix=[ 0.000547 | 0 0.000547 | 0 0 0.000547 ] Xmatrix=[ 0.001091 | 0 0.001091 | 0 0 0.001091 ] Cmatrix=[ 0 | 0 0 | 0 0 0 ]
New LineCode.700_AL_2PH_16KV_2 nphases=2 units=km Rmatrix=[ 1e-05 | 0 1e-05 ] Xmatrix=[ 1e-05 | 0 1e-05 ] Cmatrix=[ 0 | 0 0 ]
New LineCode.700_AL_1PH_16KV_1 nphases=1 units=km Rmatrix=[ 1e-05 ] Xmatrix=[ 1e-05 ] Cmatrix=[ 0 ]
New LineCode.336_ATW_3PH_16KV_3 nphases=3 units=km Rmatrix=[ 1e-05 | 0 1e-05 | 0 0 1e-05 ] Xmatrix=[ 1e-05 | 0 1e-05 | 0 0 1e-05 ] Cmatrix=[ 0 | 0 0 | 0 0 0 ]
New LineCode.1/0_ATW_3PH_16KV_3 nphases=3 units=km Rmatrix=[ 1e-05 | 0 1e-05 | 0 0 1e-05 ] Xmatrix=[ 1e-05 | 0 1e-05 | 0 0 1e-05 ] Cmatrix=[ 0 | 0 0 | 0 0 0 ]
New LineCode.1000_CLP_3PH_16KV_3 nphases=3 units=km Rmatrix=[ 0.012611 | 0 0.012611 | 0 0 0.012611 ] Xmatrix=[ 0.01909 | 0 0.01909 | 0 0 0.01909 ] Cmatrix=[ 0 | 0 0 | 0 0 0 ]
New LineCode.2_CLP_3PH_16KV_3 nphases=3 units=km Rmatrix=[ 0.002196 | 0 0.002196 | 0 0 0.002196 ] Xmatrix=[ 0.000463 | 0 0.000463 | 0 0 0.000463 ] Cmatrix=[ 0 | 0 0 | 0 0 0 ]
New LineCode.1000_JCN_3PH_16KV_3 nphases=3 units=km Rmatrix=[ 0.014161 | 0 0.014161 | 0 0 0.014161 ] Xmatrix=[ 0.021435 | 0 0.021435 | 0 0 0.021435 ] Cmatrix=[ 0 | 0 0 | 0 0 0 ]
New LineCode.1/0_JCN_1PH_16KV_1 nphases=1 units=km Rmatrix=[ 0.019626 ] Xmatrix=[ 0.005999 ] Cmatrix=[ 0 ]
New LineCode.350_JCN_3PH_16KV_3 nphases=3 units=km Rmatrix=[ 0.087343 | 0 0.087343 | 0 0 0.087343 ] Xmatrix=[ 0.066362 | 0 0.066362 | 0 0 0.066362 ] Cmatrix=[ 0 | 0 0 | 0 0 0 ]
New LineCode.1/0_JCN_2PH_16KV_2 nphases=2 units=km Rmatrix=[ 0.035625 | 0 0.035625 ] Xmatrix=[ 0.010889 | 0 0.010889 ] Cmatrix=[ 0 | 0 0 ]
New LineCode.1/0_JCN_3PH_16KV_3 nphases=3 units=km Rmatrix=[ 0.018065 | 0 0.018065 | 0 0 0.018065 ] Xmatrix=[ 0.005522 | 0 0.005522 | 0 0 0.005522 ] Cmatrix=[ 0 | 0 0 | 0 0 0 ]
New LineCode.350_AL_1PH_16KV_1 nphases=1 units=km Rmatrix=[ 0.024445 ] Xmatrix=[ 0.018573 ] Cmatrix=[ 0 ]
New LineCode.2_JCN_1PH_16KV_1 nphases=1 units=km Rmatrix=[ 0.003177 ] Xmatrix=[ 0.00067 ] Cmatrix=[ 0 ]
New LineCode.350_CLP_3PH_16KV_3 nphases=3 units=km Rmatrix=[ 0.000178 | 0 0.000178 | 0 0 0.000178 ] Xmatrix=[ 0.000135 | 0 0.000135 | 0 0 0.000135 ] Cmatrix=[ 0 | 0 0 | 0 0 0 ]
New LineCode.2_AL_2PH_16KV_2 nphases=2 units=km Rmatrix=[ 0.004182 | 0 0.004182 ] Xmatrix=[ 0.000881 | 0 0.000881 ] Cmatrix=[ 0 | 0 0 ]
New LineCode.1/0_CLP_3PH_16KV_3 nphases=3 units=km Rmatrix=[ 0.002176 | 0 0.002176 | 0 0 0.002176 ] Xmatrix=[ 0.000665 | 0 0.000665 | 0 0 0.000665 ] Cmatrix=[ 0 | 0 0 | 0 0 0 ]
New LineCode.750_CLP_3PH_16KV_3 nphases=3 units=km Rmatrix=[ 0.000127 | 0 0.000127 | 0 0 0.000127 ] Xmatrix=[ 0.000156 | 0 0.000156 | 0 0 0.000156 ] Cmatrix=[ 0 | 0 0 | 0 0 0 ]
New LineCode.350_CLP_2PH_16KV_2 nphases=2 units=km Rmatrix=[ 0.00668 | 0 0.00668 ] Xmatrix=[ 0.005075 | 0 0.005075 ] Cmatrix=[ 0 | 0 0 ]
New LineCode.750_CLP_2PH_16KV_2 nphases=2 units=km Rmatrix=[ 0.006461 | 0 0.006461 ] Xmatrix=[ 0.007935 | 0 0.007935 ] Cmatrix=[ 0 | 0 0 ]
New LineCode.6_CU_2PH_16KV_2 nphases=2 units=km Rmatrix=[ 0.042413 | 0 0.042413 ] Xmatrix=[ 0.015033 | 0 0.015033 ] Cmatrix=[ 0 | 0 0 ]
New LineCode.4_ACSR_2PH_16KV_2 nphases=2 units=km Rmatrix=[ 0.073412 | 0 0.073412 ] Xmatrix=[ 0.026938 | 0 0.026938 ] Cmatrix=[ 0 | 0 0 ]
New LineCode.4_ACSR_2PH_4_ACSR_N_16KV_3_N nphases=3 units=km Rmatrix=[ 0.002934 | 0 0.002934 | 0 0 0.002934 ] Xmatrix=[ 0.000987 | 0 0.000987 | 0 0 0.000987 ] Cmatrix=[ 0 | 0 0 | 0 0 0 ]
New LineCode.1/0_ACSR_2PH_16KV_2 nphases=2 units=km Rmatrix=[ 0.057549 | 0 0.057549 ] Xmatrix=[ 0.045821 | 0 0.045821 ] Cmatrix=[ 0 | 0 0 ]
New LineCode.__1PH_16KV_1 nphases=1 units=km Rmatrix=[ 1e-05 ] Xmatrix=[ 1e-05 ] Cmatrix=[ 0 ]
New LineCode.336_ATW_3PH_336_ATW_N_16KV_4 nphases=4 units=km Rmatrix=[ 1e-05 | 0 1e-05 | 0 0 1e-05 | 0 0 0 1e-05 ] Xmatrix=[ 1e-05 | 0 1e-05 | 0 0 1e-05 | 0 0 0 1e-05 ] Cmatrix=[ 0 | 0 0 | 0 0 0 | 0 0 0 0 ]
New LineCode.1/0_ATW_2PH_16KV_2 nphases=2 units=km Rmatrix=[ 1e-05 | 0 1e-05 ] Xmatrix=[ 1e-05 | 0 1e-05 ] Cmatrix=[ 0 | 0 0 ]
New LineCode.336_ATW_2PH_336_ATW_N_16KV_3_N nphases=3 units=km Rmatrix=[ 1e-05 | 0 1e-05 | 0 0 1e-05 ] Xmatrix=[ 1e-05 | 0 1e-05 | 0 0 1e-05 ] Cmatrix=[ 0 | 0 0 | 0 0 0 ]
New LineCode.UNK_UNK_3PH_16KV_3 nphases=3 units=km Rmatrix=[ 1e-05 | 0 1e-05 | 0 0 1e-05 ] Xmatrix=[ 1e-05 | 0 1e-05 | 0 0 1e-05 ] Cmatrix=[ 0 | 0 0 | 0 0 0 ]
New LineCode.336_ATW_3PH_16KV_4 nphases=4 units=km Rmatrix=[ 1e-05 | 0 1e-05 | 0 0 1e-05 | 0 0 0 1e-05 ] Xmatrix=[ 1e-05 | 0 1e-05 | 0 0 1e-05 | 0 0 0 1e-05 ] Cmatrix=[ 0 | 0 0 | 0 0 0 | 0 0 0 0 ]
New LineCode.336_ATW_2PH_16KV_2 nphases=2 units=km Rmatrix=[ 1e-05 | 0 1e-05 ] Xmatrix=[ 1e-05 | 0 1e-05 ] Cmatrix=[ 0 | 0 0 ]
New LineCode.1/0_ACSR_3PH_16KV_3 nphases=3 units=km Rmatrix=[ 0.402807 | 0 0.402807 | 0 0 0.402807 ] Xmatrix=[ 0.320713 | 0 0.320713 | 0 0 0.320713 ] Cmatrix=[ 0 | 0 0 | 0 0 0 ]
New LineCode.1/0_A_ABC_16_3 nphases=3 units=km Rmatrix=[ 0.019873 | 0 0.019873 | 0 0 0.019873 ] Xmatrix=[ 0.015823 | 0 0.015823 | 0 0 0.015823 ] Cmatrix=[ 0 | 0 0 | 0 0 0 ]
New LineCode.336_ATW_ABC_16_3 nphases=3 units=km Rmatrix=[ 1e-05 | 0 1e-05 | 0 0 1e-05 ] Xmatrix=[ 1e-05 | 0 1e-05 | 0 0 1e-05 ] Cmatrix=[ 0 | 0 0 | 0 0 0 ]

! Lines
New Line.RCS0464$1774845E phases=4 Bus1=18222851.0.1.2.3 Bus2=18333529.0.1.2.3 LineCode=653_ACSR_3PH_653_ACSR_N_16KV_4 Length=0.034018 units=km
New Line.RCS0464$1866095E phases=4 Bus1=18333528.0.1.2.3 Bus2=18277993.0.1.2.3 LineCode=653_ACSR_3PH_653_ACSR_N_16KV_4 Length=0.038227 units=km
New Line.1866095E$ND18366272 phases=4 Bus1=18277993.0.1.2.3 Bus2=18366272.0.1.2.3 LineCode=653_ACSR_3PH_653_ACSR_N_16KV_4 Length=0.047103 units=km
New Line.ND18366272$FD59180 phases=2 Bus1=18366272.1.3 Bus2=18276788.1.3 LineCode=653_ACSR_2PH_16KV_2 Length=0.083122 units=km
New Line.ND18366272$ND18366273 phases=4 Bus1=18366272.0.1.2.3 Bus2=18366273.0.1.2.3 LineCode=653_ACSR_3PH_653_ACSR_N_16KV_4 Length=0.080396 units=km
New Line.ND18366273$BF59323 phases=3 Bus1=18366273.1.2.3 Bus2=181765779.1.2.3 LineCode=4_ACSR_3PH_16KV_3 Length=0.004669 units=km
New Line.ND18366273$ND18365682 phases=4 Bus1=18366273.0.1.2.3 Bus2=18365682.0.1.2.3 LineCode=653_ACSR_3PH_653_ACSR_N_16KV_4 Length=0.055909 units=km
New Line.ND18365682$1775000E phases=4 Bus1=18365682.0.1.2.3 Bus2=18303830.0.1.2.3 LineCode=653_ACSR_3PH_653_ACSR_N_16KV_4 Length=0.068109 units=km
New Line.ND18365682$1712670E phases=3 Bus1=18365682.1.2.3 Bus2=18304939.1.2.3 LineCode=653_ACSR_3PH_16KV_3 Length=0.003135 units=km
New Line.1671968E$BF59323 phases=3 Bus1=181765780.1.2.3 Bus2=18222923.1.2.3 LineCode=4_ACSR_3PH_16KV_3 Length=0.095814 units=km
New Line.1775000E$ND18334445 phases=4 Bus1=18303830.0.1.2.3 Bus2=18334445.0.1.2.3 LineCode=653_ACSR_3PH_653_ACSR_N_16KV_4 Length=0.12074 units=km
New Line.FD59179$ND18334445 phases=3 Bus1=18334445.0.1.2 Bus2=18276876.0.1.2 LineCode=653_ACSR_2PH_653_ACSR_N_16KV_3_N Length=0.003522 units=km
New Line.ND18334679$ND18334445 phases=3 Bus1=18334445.1.2.3 Bus2=18334679.1.2.3 LineCode=653_ACSR_3PH_16KV_3 Length=0.043539 units=km
New Line.ND18334445$ND241191322 phases=4 Bus1=18334445.0.1.2.3 Bus2=241191322.0.1.2.3 LineCode=653_ACSR_3PH_653_ACSR_N_16KV_4 Length=0.159348 units=km
New Line.ND18334679$ND18334680 phases=3 Bus1=18334679.1.2.3 Bus2=18334680.1.2.3 LineCode=653_ACSR_3PH_16KV_3 Length=0.011437 units=km
New Line.ND241191322$ND241191189 phases=4 Bus1=241191322.0.1.2.3 Bus2=241191189.0.1.2.3 LineCode=653_ACSR_3PH_653_ACSR_N_16KV_4 Length=0.017372 units=km
New Line.ND18334680$PS0459 phases=3 Bus1=18334680.1.2.3 Bus2=18333702.1.2.3 LineCode=653_ACSR_3PH_16KV_3 Length=0.008957 units=km
New Line.ND18334680$BF59294 phases=3 Bus1=18334680.1.2.3 Bus2=18333711.1.2.3 LineCode=653_ACSR_3PH_16KV_3 Length=0.01313 units=km
New Line.ND219301524$4093235E phases=3 Bus1=219301534.1.2.3 Bus2=219301524.1.2.3 LineCode=336_ACSR_3PH_16KV_3 Length=0.003033 units=km
New Line.PS3235$ND219301524 phases=3 Bus1=219301524.1.2.3 Bus2=219301486.1.2.3 LineCode=336_ACSR_3PH_16KV_3 Length=0.005846 units=km
New Line.ND219301524$4093236E phases=3 Bus1=219301524.1.2.3 Bus2=221343836.1.2.3 LineCode=336_ACSR_3PH_16KV_3 Length=0.094033 units=km
New Line.4093236E$ND223222209 phases=3 Bus1=221343835.1.2.3 Bus2=223222209.1.2.3 LineCode=__3PH_16KV_3 Length=0.145933 units=km
New Line.RCS0219$ND241191189 phases=4 Bus1=241191189.0.1.2.3 Bus2=189352997.0.1.2.3 LineCode=653_ACSR_3PH_653_ACSR_N_16KV_4 Length=0.073594 units=km
New Line.2265854E$ND241191189 phases=4 Bus1=241191189.0.1.2.3 Bus2=95806400.0.1.2.3 LineCode=2_ACSR_3PH_2_ACSR_N_16KV_4 Length=0.057154 units=km
New Line.1671956E$RCS0219 phases=4 Bus1=189352996.0.1.2.3 Bus2=149552489.0.1.2.3 LineCode=336_ACSR_3PH_336_ACSR_N_16KV_4 Length=0.106088 units=km
New Line.BF59294$ND18367910 phases=3 Bus1=18333712.1.2.3 Bus2=18367910.1.2.3 LineCode=653_ACSR_3PH_16KV_3 Length=0.015316 units=km
New Line.ND18367910$PS0459 phases=3 Bus1=18333703.1.2.3 Bus2=18367910.1.2.3 LineCode=653_ACSR_3PH_16KV_3 Length=0.011854 units=km
New Line.PS0170$ND223222209 phases=3 Bus1=223222209.1.2.3 Bus2=41584203.1.2.3 LineCode=__3PH_16KV_3 Length=0.276447 units=km
New Line.ND18367910$ND18366561 phases=3 Bus1=18367910.1.2.3 Bus2=18366561.1.2.3 LineCode=653_ACSR_3PH_16KV_3 Length=0.018303 units=km
New Line.ND28698976$1671956E phases=4 Bus1=149552489.0.1.2.3 Bus2=28698976.0.1.2.3 LineCode=336_ACSR_3PH_336_ACSR_N_16KV_4 Length=0.072102 units=km
New Line.ND18366561$BF59039 phases=3 Bus1=18366561.1.2.3 Bus2=18333196.1.2.3 LineCode=4_ACSR_3PH_16KV_3 Length=0.107292 units=km
New Line.ND18366561$ND18334306 phases=3 Bus1=18366561.1.2.3 Bus2=18334306.1.2.3 LineCode=6_CU_3PH_16KV_3 Length=0.069353 units=km
New Line.1671954E$ND28698976 phases=4 Bus1=28698976.0.1.2.3 Bus2=28632660.0.1.2.3 LineCode=336_ACSR_3PH_336_ACSR_N_16KV_4 Length=0.068783 units=km
New Line.ND28698976$FD59007 phases=3 Bus1=28698976.0.1.2 Bus2=28636506.0.1.2 LineCode=336_ACSR_2PH_336_ACSR_N_16KV_3_N Length=0.002953 units=km
New Line.ND18334306$1072636E phases=3 Bus1=18334306.1.2.3 Bus2=18223422.1.2.3 LineCode=4_ACSR_3PH_16KV_3 Length=0.043443 units=km
New Line.FD59180$P5035534-B phases=2 Bus1=18276789.1.3 Bus2=18222432.1.3 LineCode=700_AL_2PH_16KV_2 Length=0.133921 units=km
New Line.P5035534-A$241127137 phases=2 Bus1=18222423.1.3 Bus2=241127139.1.3 LineCode=700_AL_2PH_16KV_2 Length=0.005594 units=km
New Line.B5036553-2$FD59179 phases=1 Bus1=18276877.2 Bus2=18223088.2 LineCode=700_AL_1PH_16KV_1 Length=0.08883 units=km
New Line.241127137$P5035535-B phases=2 Bus1=241127140.1.3 Bus2=186991671.1.3 LineCode=700_AL_2PH_16KV_2 Length=0.002447 units=km
New Line.B5036553-1$B5036554-1 phases=1 Bus1=18223079.2 Bus2=18223007.2 LineCode=700_AL_1PH_16KV_1 Length=0.122444 units=km
New Line.241127111$P5035535-A phases=2 Bus1=186991663.1.3 Bus2=241127114.1.3 LineCode=700_AL_2PH_16KV_2 Length=0.002208 units=km
New Line.ND28699684$ND245313179 phases=3 Bus1=28699684.1.2.3 Bus2=245313179.1.2.3 LineCode=336_ATW_3PH_16KV_3 Length=0.547424 units=km
New Line.223185293$ND28655303 phases=3 Bus1=223185298.1.2.3 Bus2=28655243.1.2.3 LineCode=336_ATW_3PH_16KV_3 Length=0.054423 units=km
New Line.ND28699684$BF01226 phases=3 Bus1=28699684.1.2.3 Bus2=95967591.1.2.3 LineCode=336_ATW_3PH_16KV_3 Length=0.066544 units=km
New Line.643875E$ND245313179 phases=3 Bus1=245313179.1.2.3 Bus2=28654779.1.2.3 LineCode=336_ATW_3PH_16KV_3 Length=0.099919 units=km
New Line.ND252227003$BF01226 phases=3 Bus1=95967592.1.2.3 Bus2=252227003.1.2.3 LineCode=1/0_ATW_3PH_16KV_3 Length=0.044095 units=km
New Line.643875E$ND28698033 phases=3 Bus1=28654779.1.2.3 Bus2=28698033.1.2.3 LineCode=336_ATW_3PH_16KV_3 Length=0.082385 units=km
New Line.1865965E$ND252227003 phases=3 Bus1=252227003.1.2.3 Bus2=28657682.1.2.3 LineCode=1/0_ATW_3PH_16KV_3 Length=0.121931 units=km
New Line.ND28698033$RCS0576 phases=3 Bus1=28698033.1.2.3 Bus2=28697971.1.2.3 LineCode=336_ATW_3PH_16KV_3 Length=0.094975 units=km
New Line.ND28655301$1651499E phases=3 Bus1=28655225.1.2.3 Bus2=121885484.1.2.3 LineCode=336_ATW_3PH_16KV_3 Length=1.71163 units=km
New Line.RCS0576$ND221343880 phases=3 Bus1=28697590.1.2.3 Bus2=221343880.1.2.3 LineCode=336_ATW_3PH_16KV_3 Length=0.15531 units=km
New Line.ND221343880$PH236 phases=3 Bus1=221343880.1.2.3 Bus2=217800704.1.2.3 LineCode=336_ATW_3PH_16KV_3 Length=0.004976 units=km
New Line.ND241942494$PS3235 phases=3 Bus1=219301487.1.2.3 Bus2=241942494.1.2.3 LineCode=336_ATW_3PH_16KV_3 Length=0.002146 units=km
New Line.ND41586684$ND241942494 phases=3 Bus1=241942494.1.2.3 Bus2=41586684.1.2.3 LineCode=336_ATW_3PH_16KV_3 Length=0.32081 units=km
New Line.ND235557457$ND41586684 phases=3 Bus1=41586684.1.2.3 Bus2=235557457.1.2.3 LineCode=336_ATW_3PH_16KV_3 Length=0.170357 units=km
New Line.ND41586684$PH221 phases=3 Bus1=41586684.1.2.3 Bus2=41567192.1.2.3 LineCode=336_ATW_3PH_16KV_3 Length=0.00094 units=km
New Line.ND241191250$1436216E phases=3 Bus1=241191250.1.2.3 Bus2=18223166.1.2.3 LineCode=1/0_ATW_3PH_16KV_3 Length=0.024037 units=km
New Line.1774857E$ND241191250 phases=3 Bus1=241191250.1.2.3 Bus2=18276914.1.2.3 LineCode=1/0_ATW_3PH_16KV_3 Length=0.043024 units=km
New Line.1436216E$1436217E phases=3 Bus1=18223166.1.2.3 Bus2=18223195.1.2.3 LineCode=1/0_ATW_3PH_16KV_3 Length=0.052112 units=km
New Line.1383175E$1774857E phases=3 Bus1=18276914.1.2.3 Bus2=18276943.1.2.3 LineCode=1/0_ATW_3PH_16KV_3 Length=0.042252 units=km
New Line.1774845E$ND272982886 phases=3 Bus1=272982886.1.2.3 Bus2=18222852.1.2.3 LineCode=1000_CLP_3PH_16KV_3 Length=0.302642 units=km
New Line.ND272982886$GS5210-3 phases=3 Bus1=272982886.1.2.3 Bus2=243969855.1.2.3 LineCode=1000_CLP_3PH_16KV_3 Length=0.149014 units=km
New Line.1712670E$P5504504-1 phases=3 Bus1=18304940.1.2.3 Bus2=18304953.1.2.3 LineCode=2_CLP_3PH_16KV_3 Length=0.090278 units=km
New Line.PH236$RCS6552-3 phases=3 Bus1=217800705.1.2.3 Bus2=219301371.1.2.3 LineCode=1000_JCN_3PH_16KV_3 Length=0.110112 units=km
New Line.RCS6552-4$V5726552PT phases=1 Bus1=219301380.3 Bus2=218839251.3 LineCode=1/0_JCN_1PH_16KV_1 Length=0.027852 units=km
New Line.ND219301568$RCS6552-2 phases=3 Bus1=219301362.1.2.3 Bus2=219301568.1.2.3 LineCode=1000_JCN_3PH_16KV_3 Length=0.021862 units=km
New Line.GS8420-5$RCS6552-1 phases=3 Bus1=219301353.1.2.3 Bus2=221886168.1.2.3 LineCode=1000_JCN_3PH_16KV_3 Length=0.520595 units=km
New Line.ND219301568$ND240040830 phases=3 Bus1=219301568.1.2.3 Bus2=240040830.1.2.3 LineCode=1000_JCN_3PH_16KV_3 Length=0.009373 units=km
New Line.ND240040830$GS6553-6 phases=3 Bus1=240040830.1.2.3 Bus2=217801074.1.2.3 LineCode=1000_JCN_3PH_16KV_3 Length=0.240909 units=km
New Line.4093235E$ND240040830 phases=3 Bus1=240040830.1.2.3 Bus2=219301539.1.2.3 LineCode=1000_JCN_3PH_16KV_3 Length=0.263737 units=km
New Line.GS8420-4$GS6558-1 phases=3 Bus1=221886159.1.2.3 Bus2=221886313.1.2.3 LineCode=350_JCN_3PH_16KV_3 Length=0.263593 units=km
New Line.GS6553-5$215479723 phases=2 Bus1=217801065.1.2 Bus2=215479725.1.2 LineCode=1/0_JCN_2PH_16KV_2 Length=0.077851 units=km
New Line.GS8420-3$GS6555-1 phases=3 Bus1=221886150.1.2.3 Bus2=217800801.1.2.3 LineCode=1/0_JCN_3PH_16KV_3 Length=0.350744 units=km
New Line.GS8420-2$222919471 phases=3 Bus1=221886141.1.2.3 Bus2=222919474.1.2.3 LineCode=1/0_JCN_3PH_16KV_3 Length=0.006418 units=km
New Line.P5726554-1$215479723 phases=2 Bus1=215479726.1.2 Bus2=217801238.1.2 LineCode=1/0_JCN_2PH_16KV_2 Length=0.002421 units=km
New Line.GS8420-1$GS8422-6 phases=3 Bus1=221886132.1.2.3 Bus2=221886552.1.2.3 LineCode=1000_JCN_3PH_16KV_3 Length=0.384002 units=km
New Line.BF59324$ND241191189 phases=3 Bus1=241191189.1.2.3 Bus2=95806347.1.2.3 LineCode=4_ACSR_3PH_16KV_3 Length=0.035346 units=km
New Line.BF59324$ND241191250 phases=3 Bus1=95806346.1.2.3 Bus2=241191250.1.2.3 LineCode=4_ACSR_3PH_16KV_3 Length=0.011725 units=km
New Line.GS5055-1$GS6553-3 phases=3 Bus1=217801047.1.2.3 Bus2=240040702.1.2.3 LineCode=350_JCN_3PH_16KV_3 Length=0.393793 units=km
New Line.GS6553-2$215479634 phases=3 Bus1=217801038.1.2.3 Bus2=215479636.1.2.3 LineCode=1/0_JCN_3PH_16KV_3 Length=0.229474 units=km
New Line.GS6558-2$222459753 phases=3 Bus1=221886322.1.2.3 Bus2=222459755.1.2.3 LineCode=1/0_JCN_3PH_16KV_3 Length=0.165364 units=km
New Line.222919471$ND222919415 phases=3 Bus1=222919473.1.2.3 Bus2=222919415.1.2.3 LineCode=1/0_JCN_3PH_16KV_3 Length=0.025452 units=km
New Line.GS6558-3$215480185 phases=3 Bus1=221886331.1.2.3 Bus2=215480187.1.2.3 LineCode=1/0_JCN_3PH_16KV_3 Length=0.115644 units=km
New Line.FD59007$B5036550-2 phases=1 Bus1=28636507.2 Bus2=28618908.2 LineCode=350_AL_1PH_16KV_1 Length=0.05947 units=km
New Line.GS6553-1$GS6555-6 phases=3 Bus1=217801029.1.2.3 Bus2=217800846.1.2.3 LineCode=1000_JCN_3PH_16KV_3 Length=0.196754 units=km
New Line.ND222919415$222919498 phases=3 Bus1=222919415.1.2.3 Bus2=222919500.1.2.3 LineCode=1/0_JCN_3PH_16KV_3 Length=0.21584 units=km
New Line.ND222919415$222919529 phases=3 Bus1=222919415.1.2.3 Bus2=222919531.1.2.3 LineCode=1/0_JCN_3PH_16KV_3 Length=0.20811 units=km
New Line.GS6555-2$0228111 phases=3 Bus1=217800810.1.2.3 Bus2=223065355.1.2.3 LineCode=1/0_JCN_3PH_16KV_3 Length=0.068975 units=km
New Line.215479634$P5741368-1 phases=3 Bus1=215479637.1.2.3 Bus2=215479652.1.2.3 LineCode=1/0_JCN_3PH_16KV_3 Length=0.002807 units=km
New Line.222459753$PME0048-1 phases=3 Bus1=222459756.1.2.3 Bus2=222459603.1.2.3 LineCode=1/0_JCN_3PH_16KV_3 Length=0.002275 units=km
New Line.1693552E$146370507 phases=1 Bus1=146369787.1 Bus2=146370509.1 LineCode=2_JCN_1PH_16KV_1 Length=0.177048 units=km
New Line.B5036550-1$B5036551-1 phases=1 Bus1=28618899.2 Bus2=28618971.2 LineCode=350_AL_1PH_16KV_1 Length=0.143476 units=km
New Line.146370507$ND146370448 phases=1 Bus1=146370510.1 Bus2=146370448.1 LineCode=2_JCN_1PH_16KV_1 Length=0.00315 units=km
New Line.PH221$239690073 phases=3 Bus1=41567193.1.2.3 Bus2=239690075.1.2.3 LineCode=350_CLP_3PH_16KV_3 Length=0.170482 units=km
New Line.GS5055-2$215479854 phases=3 Bus1=240040711.1.2.3 Bus2=215479856.1.2.3 LineCode=1/0_JCN_3PH_16KV_3 Length=0.143177 units=km
New Line.215480185$219247223 phases=3 Bus1=215480188.1.2.3 Bus2=219247226.1.2.3 LineCode=1/0_JCN_3PH_16KV_3 Length=0.022949 units=km
New Line.GS6555-4$PME0902-2 phases=3 Bus1=217800828.1.2.3 Bus2=219503836.1.2.3 LineCode=1/0_JCN_3PH_16KV_3 Length=0.39053 units=km
New Line.222919529$222608673 phases=3 Bus1=222919532.1.2.3 Bus2=222608676.1.2.3 LineCode=1/0_JCN_3PH_16KV_3 Length=0.014038 units=km
New Line.222919498$P5750051-1 phases=3 Bus1=222919501.1.2.3 Bus2=222919433.1.2.3 LineCode=1/0_JCN_3PH_16KV_3 Length=0.001775 units=km
New Line.FD59230$235557477 phases=2 Bus1=41561353.1.3 Bus2=235557479.1.3 LineCode=2_AL_2PH_16KV_2 Length=0.187274 units=km
New Line.0199201$GS8422-5 phases=3 Bus1=221886543.1.2.3 Bus2=238019920.1.2.3 LineCode=1000_JCN_3PH_16KV_3 Length=0.252629 units=km
New Line.P5624957-2$ND146370448 phases=1 Bus1=146370448.1 Bus2=146369947.1 LineCode=2_JCN_1PH_16KV_1 Length=0.0032 units=km
New Line.ND146370448$146370482 phases=1 Bus1=146370448.1 Bus2=146370485.1 LineCode=2_JCN_1PH_16KV_1 Length=0.002251 units=km
New Line.1693554E$146370796 phases=1 Bus1=146369802.1 Bus2=146370798.1 LineCode=2_JCN_1PH_16KV_1 Length=0.00338 units=km
New Line.B5036552-2$B5036551-2 phases=1 Bus1=28618980.2 Bus2=28618692.2 LineCode=350_AL_1PH_16KV_1 Length=0.110109 units=km
New Line.146370796$P5624964-1 phases=1 Bus1=146370799.1 Bus2=146370210.1 LineCode=2_JCN_1PH_16KV_1 Length=0.001369 units=km
New Line.146370482$146370455 phases=1 Bus1=146370484.1 Bus2=146370457.1 LineCode=2_JCN_1PH_16KV_1 Length=0.296324 units=km
New Line.GS6555-5$217801483 phases=2 Bus1=217800837.1.2 Bus2=217801485.1.2 LineCode=1/0_JCN_2PH_16KV_2 Length=0.234152 units=km
New Line.GS8422-4$238313872 phases=3 Bus1=221886534.1.2.3 Bus2=238313874.1.2.3 LineCode=1/0_JCN_3PH_16KV_3 Length=0.070449 units=km
New Line.239690073$P5373741-A phases=3 Bus1=239690076.1.2.3 Bus2=239689804.1.2.3 LineCode=350_CLP_3PH_16KV_3 Length=0.002452 units=km
New Line.215479854$PME1377-1 phases=3 Bus1=215479857.1.2.3 Bus2=215479796.1.2.3 LineCode=1/0_JCN_3PH_16KV_3 Length=0.003432 units=km
New Line.219247223$221398691 phases=3 Bus1=219247225.1.2.3 Bus2=221398693.1.2.3 LineCode=1/0_JCN_3PH_16KV_3 Length=0.09953 units=km
New Line.222608673$222608761 phases=3 Bus1=222608675.1.2.3 Bus2=222608763.1.2.3 LineCode=1/0_JCN_3PH_16KV_3 Length=0.019469 units=km
New Line.235557477$P5706647-1 phases=2 Bus1=235557480.1.3 Bus2=235557495.1.3 LineCode=2_AL_2PH_16KV_2 Length=0.003731 units=km
New Line.PME5056-2$GS5055-4 phases=3 Bus1=240040729.1.2.3 Bus2=240040965.1.2.3 LineCode=350_JCN_3PH_16KV_3 Length=0.398315 units=km
New Line.217801483$P5726557-1 phases=2 Bus1=217801486.1.2 Bus2=217801439.1.2 LineCode=1/0_JCN_2PH_16KV_2 Length=0.003392 units=km
New Line.PME0048-2$222459726 phases=2 Bus1=222459594.2.3 Bus2=222459729.2.3 LineCode=1/0_JCN_2PH_16KV_2 Length=0.001952 units=km
New Line.238313872$238313899 phases=3 Bus1=238313875.1.2.3 Bus2=238313902.1.2.3 LineCode=1/0_JCN_3PH_16KV_3 Length=0.020515 units=km
New Line.PME0902-4$219504109 phases=3 Bus1=219503827.1.2.3 Bus2=219504112.1.2.3 LineCode=1/0_JCN_3PH_16KV_3 Length=0.029783 units=km
New Line.221398691$221398716 phases=3 Bus1=221398694.1.2.3 Bus2=221398719.1.2.3 LineCode=1/0_JCN_3PH_16KV_3 Length=0.022685 units=km
New Line.222608761$P5750047-1 phases=3 Bus1=222608764.1.2.3 Bus2=222608726.1.2.3 LineCode=1/0_JCN_3PH_16KV_3 Length=0.002068 units=km
New Line.GS8422-1$GS6677-5 phases=3 Bus1=221886507.1.2.3 Bus2=238314091.1.2.3 LineCode=1000_JCN_3PH_16KV_3 Length=0.514736 units=km
New Line.P5373741-B$239690046 phases=3 Bus1=239689822.1.2.3 Bus2=239690049.1.2.3 LineCode=1/0_CLP_3PH_16KV_3 Length=0.002129 units=km
New Line.P5624957-1$146370532 phases=1 Bus1=146369938.1 Bus2=146370535.1 LineCode=2_JCN_1PH_16KV_1 Length=0.002848 units=km
New Line.222459726$222459699 phases=2 Bus1=222459728.2.3 Bus2=222459701.2.3 LineCode=1/0_JCN_2PH_16KV_2 Length=0.014748 units=km
New Line.238313899$237871123 phases=3 Bus1=238313901.1.2.3 Bus2=237871125.1.2.3 LineCode=1/0_JCN_3PH_16KV_3 Length=0.017601 units=km
New Line.240041156$PME5056-3 phases=3 Bus1=240040947.1.2.3 Bus2=240041159.1.2.3 LineCode=1/0_JCN_3PH_16KV_3 Length=0.002788 units=km
New Line.219504141$219504109 phases=3 Bus1=219504111.1.2.3 Bus2=219504143.1.2.3 LineCode=1/0_JCN_3PH_16KV_3 Length=0.114039 units=km
New Line.221398716$221398664 phases=3 Bus1=221398718.1.2.3 Bus2=221398666.1.2.3 LineCode=1/0_JCN_3PH_16KV_3 Length=0.028236 units=km
New Line.239690046$239689992 phases=3 Bus1=239690048.1.2.3 Bus2=239689994.1.2.3 LineCode=1/0_CLP_3PH_16KV_3 Length=0.152351 units=km
New Line.PME1377-2$240040872 phases=3 Bus1=215479787.1.2.3 Bus2=240040875.1.2.3 LineCode=1/0_JCN_3PH_16KV_3 Length=0.00278 units=km
New Line.PME5056-1$0236177 phases=3 Bus1=240040974.1.2.3 Bus2=240041108.1.2.3 LineCode=1/0_JCN_3PH_16KV_3 Length=0.161597 units=km
New Line.PME5056-4$240041217 phases=3 Bus1=240040956.1.2.3 Bus2=240041220.1.2.3 LineCode=1/0_JCN_3PH_16KV_3 Length=0.002414 units=km
New Line.222459699$ND222459664 phases=2 Bus1=222459702.2.3 Bus2=222459671.2.3 LineCode=1/0_JCN_2PH_16KV_2 Length=0.004987 units=km
New Line.237871123$P5755959-1 phases=3 Bus1=237871126.1.2.3 Bus2=237871088.1.2.3 LineCode=1/0_JCN_3PH_16KV_3 Length=0.001727 units=km
New Line.146370455$P5624963-2 phases=1 Bus1=146370458.1 Bus2=146369879.1 LineCode=2_JCN_1PH_16KV_1 Length=0.002421 units=km
New Line.240041156$240041183 phases=3 Bus1=240041158.1.2.3 Bus2=240041185.1.2.3 LineCode=1/0_JCN_3PH_16KV_3 Length=0.064701 units=km
New Line.240040872$215479866 phases=3 Bus1=240040874.1.2.3 Bus2=215479868.1.2.3 LineCode=1/0_JCN_3PH_16KV_3 Length=0.05035 units=km
New Line.PME0904-1$219504141 phases=3 Bus1=219504144.1.2.3 Bus2=219503985.1.2.3 LineCode=1/0_JCN_3PH_16KV_3 Length=0.003533 units=km
New Line.221398664$219247345 phases=3 Bus1=221398667.1.2.3 Bus2=221398642.1.2.3 LineCode=1/0_JCN_3PH_16KV_3 Length=0.01853 units=km
New Line.238389411$GS6677-4 phases=3 Bus1=238314082.1.2.3 Bus2=238389413.1.2.3 LineCode=1/0_JCN_3PH_16KV_3 Length=0.498921 units=km
New Line.239689992$239690019 phases=3 Bus1=239689995.1.2.3 Bus2=239690022.1.2.3 LineCode=1/0_CLP_3PH_16KV_3 Length=0.021468 units=km
New Line.240041217$240041274 phases=3 Bus1=240041219.1.2.3 Bus2=240041276.1.2.3 LineCode=1/0_JCN_3PH_16KV_3 Length=0.124311 units=km
New Line.PME3771-1$GS6677-3 phases=3 Bus1=238314073.1.2.3 Bus2=238388920.1.2.3 LineCode=350_JCN_3PH_16KV_3 Length=0.520345 units=km
New Line.240041183$ND240041147 phases=3 Bus1=240041186.1.2.3 Bus2=240041129.1.2.3 LineCode=1/0_JCN_3PH_16KV_3 Length=0.004674 units=km
New Line.146370532$146370687 phases=1 Bus1=146370534.1 Bus2=146370689.1 LineCode=2_JCN_1PH_16KV_1 Length=0.203864 units=km
New Line.P5624964-2$146370823 phases=1 Bus1=146370219.1 Bus2=146370826.1 LineCode=2_JCN_1PH_16KV_1 Length=0.007018 units=km
New Line.V5333783$4033445E phases=3 Bus1=28636523.1.2.3 Bus2=160777448.1.2.3 LineCode=1000_CLP_3PH_16KV_3 Length=0.125119 units=km
New Line.215479866$ND215479932 phases=3 Bus1=215479869.1.2.3 Bus2=215479914.1.2.3 LineCode=1/0_JCN_3PH_16KV_3 Length=0.005817 units=km
New Line.219247345$219247314 phases=3 Bus1=221398641.1.2.3 Bus2=219247316.1.2.3 LineCode=1/0_JCN_3PH_16KV_3 Length=0.096091 units=km
New Line.238389411$PME3775-1 phases=3 Bus1=238389414.1.2.3 Bus2=238389353.1.2.3 LineCode=1/0_JCN_3PH_16KV_3 Length=0.00178 units=km
New Line.239690019$239689959 phases=3 Bus1=239690021.1.2.3 Bus2=239689961.1.2.3 LineCode=1/0_CLP_3PH_16KV_3 Length=0.071566 units=km
New Line.240041274$ND240041265 phases=3 Bus1=240041277.1.2.3 Bus2=240041247.1.2.3 LineCode=1/0_JCN_3PH_16KV_3 Length=0.005124 units=km
New Line.GS6677-2$238314278 phases=2 Bus1=238314064.1.2 Bus2=242088968.1.2 LineCode=1/0_JCN_2PH_16KV_2 Length=0.183413 units=km
New Line.1966764E$P5346579-1 phases=3 Bus1=41566910.1.2.3 Bus2=41566926.1.2.3 LineCode=1/0_CLP_3PH_16KV_3 Length=0.070229 units=km
New Line.146370687$P5624959-1 phases=1 Bus1=146370690.1 Bus2=146370142.1 LineCode=2_JCN_1PH_16KV_1 Length=0.001766 units=km
New Line.146370823$146370769 phases=1 Bus1=146370825.1 Bus2=146370771.1 LineCode=2_JCN_1PH_16KV_1 Length=0.107259 units=km
New Line.V5333783$RCS3783-1 phases=3 Bus1=160777448.1.2.3 Bus2=28680041.1.2.3 LineCode=1000_CLP_3PH_16KV_3 Length=0.020323 units=km
New Line.146370769$P5624966-2 phases=1 Bus1=146370772.1 Bus2=146370287.1 LineCode=2_JCN_1PH_16KV_1 Length=0.002213 units=km
New Line.P5624959-2$146370739 phases=1 Bus1=146370151.1 Bus2=146370742.1 LineCode=2_JCN_1PH_16KV_1 Length=0.02665 units=km
New Line.GS6677-1$GS3378-6 phases=3 Bus1=238314055.1.2.3 Bus2=242169110.1.2.3 LineCode=1000_JCN_3PH_16KV_3 Length=0.52651 units=km
New Line.219247314$P5740759-1 phases=3 Bus1=219247317.1.2.3 Bus2=219247279.1.2.3 LineCode=1/0_JCN_3PH_16KV_3 Length=0.002813 units=km
New Line.PME0904-2$219504180 phases=3 Bus1=219503976.1.2.3 Bus2=219504183.1.2.3 LineCode=1/0_JCN_3PH_16KV_3 Length=0.003132 units=km
New Line.238314278$P5766678-1 phases=2 Bus1=238314281.1.2 Bus2=238314229.1.2 LineCode=1/0_JCN_2PH_16KV_2 Length=0.00204 units=km
New Line.PME3771-4$238389198 phases=3 Bus1=238388902.1.2.3 Bus2=238389201.1.2.3 LineCode=1/0_JCN_3PH_16KV_3 Length=0.001692 units=km
New Line.239689959$P5590894-1 phases=3 Bus1=239689962.1.2.3 Bus2=239689915.1.2.3 LineCode=1/0_CLP_3PH_16KV_3 Length=0.002313 units=km
New Line.PME3771-3$238389225 phases=3 Bus1=238388893.1.2.3 Bus2=238389228.1.2.3 LineCode=1/0_JCN_3PH_16KV_3 Length=0.00158 units=km
New Line.PME3771-2$0199202 phases=3 Bus1=238388911.1.2.3 Bus2=240255779.1.2.3 LineCode=1/0_JCN_3PH_16KV_3 Length=0.130679 units=km
New Line.219504180$219504207 phases=3 Bus1=219504182.1.2.3 Bus2=219504209.1.2.3 LineCode=1/0_JCN_3PH_16KV_3 Length=0.045907 units=km
New Line.238389198$238389305 phases=3 Bus1=238389200.1.2.3 Bus2=238389307.1.2.3 LineCode=1/0_JCN_3PH_16KV_3 Length=0.074476 units=km
New Line.PME3775-2$238389475 phases=3 Bus1=238389344.1.2.3 Bus2=238389478.1.2.3 LineCode=1/0_JCN_3PH_16KV_3 Length=0.001825 units=km
New Line.PME3765-1$4997419E phases=3 Bus1=240533752.1.2.3 Bus2=240533485.1.2.3 LineCode=350_JCN_3PH_16KV_3 Length=0.110547 units=km
New Line.FD02096$P5305641-1 phases=3 Bus1=41567551.1.2.3 Bus2=41567567.1.2.3 LineCode=350_CLP_3PH_16KV_3 Length=0.067346 units=km
New Line.146370739$146370662 phases=1 Bus1=146370741.1 Bus2=146370664.1 LineCode=2_JCN_1PH_16KV_1 Length=0.11562 units=km
New Line.146370662$ND146370431 phases=1 Bus1=146370665.1 Bus2=146370431.1 LineCode=2_JCN_1PH_16KV_1 Length=0.006631 units=km
New Line.ND146370431$146370612 phases=1 Bus1=146370431.1 Bus2=146370615.1 LineCode=2_JCN_1PH_16KV_1 Length=0.006964 units=km
New Line.ND146370431$146370637 phases=1 Bus1=146370431.1 Bus2=146370640.1 LineCode=2_JCN_1PH_16KV_1 Length=0.005352 units=km
New Line.PH550E$237670501 phases=3 Bus1=237670432.1.2.3 Bus2=237670503.1.2.3 LineCode=1/0_CLP_3PH_16KV_3 Length=0.061931 units=km
New Line.146370612$146370557 phases=1 Bus1=146370614.1 Bus2=146370559.1 LineCode=2_JCN_1PH_16KV_1 Length=0.508628 units=km
New Line.146370637$146370587 phases=1 Bus1=146370639.1 Bus2=146370589.1 LineCode=2_JCN_1PH_16KV_1 Length=0.09308 units=km
New Line.237670501$P5706459-1 phases=3 Bus1=237670504.1.2.3 Bus2=237670460.1.2.3 LineCode=1/0_CLP_3PH_16KV_3 Length=0.003098 units=km
New Line.PH250E$P5706561 phases=3 Bus1=240686733.1.2.3 Bus2=240686756.1.2.3 LineCode=1/0_CLP_3PH_16KV_3 Length=0.039781 units=km
New Line.146370557$P5624962-1 phases=1 Bus1=146370560.1 Bus2=146370006.1 LineCode=2_JCN_1PH_16KV_1 Length=0.005175 units=km
New Line.146370587$P5624961-2 phases=1 Bus1=146370590.1 Bus2=146370083.1 LineCode=2_JCN_1PH_16KV_1 Length=0.001848 units=km
New Line.FD02242$P5452083-1 phases=3 Bus1=28656196.1.2.3 Bus2=28656212.1.2.3 LineCode=350_CLP_3PH_16KV_3 Length=0.047841 units=km
New Line.FD02240$236395910 phases=3 Bus1=105214403.1.2.3 Bus2=236395912.1.2.3 LineCode=1/0_JCN_3PH_16KV_3 Length=0.099454 units=km
New Line.236395910$P5513500-1 phases=3 Bus1=236395913.1.2.3 Bus2=105214440.1.2.3 LineCode=1/0_JCN_3PH_16KV_3 Length=0.002482 units=km
New Line.238389225$238389264 phases=3 Bus1=238389227.1.2.3 Bus2=238389266.1.2.3 LineCode=1/0_JCN_3PH_16KV_3 Length=0.06755 units=km
New Line.GS3378-5$242089245 phases=3 Bus1=242169101.1.2.3 Bus2=242089247.1.2.3 LineCode=1/0_JCN_3PH_16KV_3 Length=0.311541 units=km
New Line.FD02221$BS8922X-T phases=3 Bus1=41567612.1.2.3 Bus2=41567636.1.2.3 LineCode=350_CLP_3PH_16KV_3 Length=0.032095 units=km
New Line.219504207$ND219504064 phases=3 Bus1=219504210.1.2.3 Bus2=219504046.1.2.3 LineCode=1/0_JCN_3PH_16KV_3 Length=0.006724 units=km
New Line.238389305$P5773772-1 phases=3 Bus1=238389308.1.2.3 Bus2=238389067.1.2.3 LineCode=1/0_JCN_3PH_16KV_3 Length=0.001764 units=km
New Line.238389475$238389502 phases=3 Bus1=238389477.1.2.3 Bus2=238389504.1.2.3 LineCode=1/0_JCN_3PH_16KV_3 Length=0.079185 units=km
New Line.GS3378-4$ND242089052 phases=3 Bus1=242169092.1.2.3 Bus2=242089052.1.2.3 LineCode=1/0_JCN_3PH_16KV_3 Length=0.071934 units=km
New Line.2330000E$ND41586479 phases=3 Bus1=41566118.1.2.3 Bus2=41586479.1.2.3 LineCode=350_CLP_3PH_16KV_3 Length=0.032591 units=km
New Line.ND41586479$P5373728-A phases=3 Bus1=41586479.1.2.3 Bus2=153297176.1.2.3 LineCode=350_CLP_3PH_16KV_3 Length=0.661525 units=km
New Line.217801390$GS3378-3 phases=3 Bus1=242169083.1.2.3 Bus2=217801392.1.2.3 LineCode=1/0_JCN_3PH_16KV_3 Length=0.362262 units=km
New Line.ND41586479$220741679 phases=3 Bus1=41586479.1.2.3 Bus2=220741681.1.2.3 LineCode=750_CLP_3PH_16KV_3 Length=0.051584 units=km
New Line.P5773773-1$238389264 phases=3 Bus1=238389267.1.2.3 Bus2=238389124.1.2.3 LineCode=1/0_JCN_3PH_16KV_3 Length=0.001558 units=km
New Line.242089245$PME5101-1 phases=3 Bus1=242089248.1.2.3 Bus2=242089122.1.2.3 LineCode=1/0_JCN_3PH_16KV_3 Length=0.002734 units=km
...

! Switches
New Line.GS5055-2$GS5055-3 phases=3 Bus1=240040682.1.2.3 Bus2=240040688.1.2.3 switch=y r1=0.001 x1=0.001 r0=0.001 x0=0.001 Length=0.001 units=km
New Line.GS8422-2$GS8422-3 phases=3 Bus1=221886481.1.2.3 Bus2=221886475.1.2.3 switch=y r1=0.001 x1=0.001 r0=0.001 x0=0.001 Length=0.001 units=km
New Line.PME0902-4$PME0902-2 phases=3 Bus1=219503810.1.2.3 Bus2=219503809.1.2.3 switch=y r1=0.001 x1=0.001 r0=0.001 x0=0.001 Length=0.001 units=km
New Line.PME5056-4$PME5056-3 phases=3 Bus1=240040939.1.2.3 Bus2=240040938.1.2.3 switch=y r1=0.001 x1=0.001 r0=0.001 x0=0.001 Length=0.001 units=km
New Line.GS3378-2$GS3378-3 phases=3 Bus1=242169039.1.2.3 Bus2=242169033.1.2.3 switch=y r1=0.001 x1=0.001 r0=0.001 x0=0.001 Length=0.001 units=km
New Line.GS3378-1$GS3378-2 phases=3 Bus1=242169033.1.2.3 Bus2=242169032.1.2.3 switch=y r1=0.001 x1=0.001 r0=0.001 x0=0.001 Length=0.001 units=km
New Line.GS3371-1$242169824 phases=3 Bus1=242169785.1.2.3 Bus2=242169784.1.2.3 switch=y r1=0.001 x1=0.001 r0=0.001 x0=0.001 Length=0.001 units=km
New Line.5750902:PME0902-3 phases=3 Bus1=219503810.1.2.3 Bus2=219503818.1.2.3 switch=y r1=0.001 x1=0.001 r0=0.001 x0=0.001 Length=0.001 units=km enabled=false
New Line.5750048:PME0048-2 phases=3 Bus1=222459585.1.2.3 Bus2=222459594.1.2.3 switch=y r1=0.001 x1=0.001 r0=0.001 x0=0.001 Length=0.001 units=km
New Line.5773528:PME5056-3 phases=3 Bus1=240040939.1.2.3 Bus2=240040947.1.2.3 switch=y r1=0.001 x1=0.001 r0=0.001 x0=0.001 Length=0.001 units=km
New Line.5741377:PME1377-2 phases=3 Bus1=215479778.1.2.3 Bus2=215479787.1.2.3 switch=y r1=0.001 x1=0.001 r0=0.001 x0=0.001 Length=0.001 units=km
New Line.5773528:PME5056-4 phases=3 Bus1=240040938.1.2.3 Bus2=240040956.1.2.3 switch=y r1=0.001 x1=0.001 r0=0.001 x0=0.001 Length=0.001 units=km
New Line.5750904:PME0904-2 phases=3 Bus1=219503967.1.2.3 Bus2=219503976.1.2.3 switch=y r1=0.001 x1=0.001 r0=0.001 x0=0.001 Length=0.001 units=km
New Line.5773775:PME3775-2 phases=3 Bus1=238389335.1.2.3 Bus2=238389344.1.2.3 switch=y r1=0.001 x1=0.001 r0=0.001 x0=0.001 Length=0.001 units=km
New Line.5138922:BS8922Y-1 phases=3 Bus1=41568164.1.2.3 Bus2=41568165.1.2.3 switch=y r1=0.001 x1=0.001 r0=0.001 x0=0.001 Length=0.001 units=km
New Line.5770403:PME5101-2 phases=3 Bus1=242089104.1.2.3 Bus2=242089113.1.2.3 switch=y r1=0.001 x1=0.001 r0=0.001 x0=0.001 Length=0.001 units=km
New Line.5346737:BS6737-1 phases=3 Bus1=41566780.1.2.3 Bus2=41566781.1.2.3 switch=y r1=0.001 x1=0.001 r0=0.001 x0=0.001 Length=0.001 units=km
New Line.5138437:BS8437-1 phases=3 Bus1=41566074.1.2.3 Bus2=41566075.1.2.3 switch=y r1=0.001 x1=0.001 r0=0.001 x0=0.001 Length=0.001 units=km
New Line.5775550:PME5137-3 phases=3 Bus1=242543329.1.2.3 Bus2=242543337.1.2.3 switch=y r1=0.001 x1=0.001 r0=0.001 x0=0.001 Length=0.001 units=km
New Line.5708251:PME8251-2 phases=2 Bus1=197199830.1.2 Bus2=197199839.1.2 switch=y r1=0.001 x1=0.001 r0=0.001 x0=0.001 Length=0.001 units=km
New Line.5773371:GS3371-4 phases=3 Bus1=242169797.1.2.3 Bus2=242169844.1.2.3 switch=y r1=0.001 x1=0.001 r0=0.001 x0=0.001 Length=0.001 units=km enabled=false
New Line.CALGROVE$GAVIN_RCS0135$RCS0135 phases=3 Bus1=28697654.1.2.3 Bus2=-77777728697654.1.2.3 switch=y r1=0.001 x1=0.001 r0=0.001 x0=0.001 Length=0.001 units=km
New Line.CALGROVE$NEEDHAM_PS0220$PS0220 phases=3 Bus1=28696808.1.2.3 Bus2=-77777728696808.1.2.3 switch=y r1=0.001 x1=0.001 r0=0.001 x0=0.001 Length=0.001 units=km
New Line.CALGROVE$LYONS_RCS0570$RCS0570 phases=3 Bus1=41584362.1.2.3 Bus2=-77777741584362.1.2.3 switch=y r1=0.001 x1=0.001 r0=0.001 x0=0.001 Length=0.001 units=km
New Line.CALGROVE$LYONS_GS3371-4$GS3371-4 phases=3 Bus1=242169844.1.2.3 Bus2=-777777242169844.1.2.3 switch=y r1=0.001 x1=0.001 r0=0.001 x0=0.001 Length=0.001 units=km
New Line.5726553:GS6553-4 phases=3 Bus1=217801009.1.2.3 Bus2=217801056.1.2.3 switch=y r1=0.001 x1=0.001 r0=0.001 x0=0.001 Length=0.001 units=km enabled=false
New Line.5726555:GS6555-3 phases=3 Bus1=217800775.1.2.3 Bus2=217800819.1.2.3 switch=y r1=0.001 x1=0.001 r0=0.001 x0=0.001 Length=0.001 units=km enabled=false
New Line.5726558:GS6558-4 phases=3 Bus1=221886305.1.2.3 Bus2=221886340.1.2.3 switch=y r1=0.001 x1=0.001 r0=0.001 x0=0.001 Length=0.001 units=km enabled=false
New Line.5773525:GS5055-3 phases=3 Bus1=240040688.1.2.3 Bus2=240040720.1.2.3 switch=y r1=0.001 x1=0.001 r0=0.001 x0=0.001 Length=0.001 units=km enabled=false
New Line.5748422:GS8422-3 phases=3 Bus1=221886481.1.2.3 Bus2=221886525.1.2.3 switch=y r1=0.001 x1=0.001 r0=0.001 x0=0.001 Length=0.001 units=km enabled=false
New Line.5748422:GS8422-2 phases=3 Bus1=221886475.1.2.3 Bus2=221886516.1.2.3 switch=y r1=0.001 x1=0.001 r0=0.001 x0=0.001 Length=0.001 units=km enabled=false
New Line.5750902:PME0902-1 phases=3 Bus1=219503809.1.2.3 Bus2=219503845.1.2.3 switch=y r1=0.001 x1=0.001 r0=0.001 x0=0.001 Length=0.001 units=km enabled=false
New Line.5773765:PME3765-4 phases=3 Bus1=240533450.1.2.3 Bus2=240533467.1.2.3 switch=y r1=0.001 x1=0.001 r0=0.001 x0=0.001 Length=0.001 units=km enabled=false
New Line.5773374:GS3374-4 phases=3 Bus1=242169545.1.2.3 Bus2=242169592.1.2.3 switch=y r1=0.001 x1=0.001 r0=0.001 x0=0.001 Length=0.001 units=km enabled=false
New Line.5775550:PME5137-1 phases=3 Bus1=242543328.1.2.3 Bus2=242543364.1.2.3 switch=y r1=0.001 x1=0.001 r0=0.001 x0=0.001 Length=0.001 units=km enabled=false
New Line.5775550:PME5137-2 phases=3 Bus1=242543329.1.2.3 Bus2=242543355.1.2.3 switch=y r1=0.001 x1=0.001 r0=0.001 x0=0.001 Length=0.001 units=km enabled=false
New Line.5773371:GS3371-1 phases=3 Bus1=242169784.1.2.3 Bus2=242169817.1.2.3 switch=y r1=0.001 x1=0.001 r0=0.001 x0=0.001 Length=0.001 units=km enabled=false
New Line.5773371:GS3371-3 phases=3 Bus1=242169791.1.2.3 Bus2=242169835.1.2.3 switch=y r1=0.001 x1=0.001 r0=0.001 x0=0.001 Length=0.001 units=km enabled=false
New Line.5773371:GS3371-5 phases=3 Bus1=242169803.1.2.3 Bus2=242169853.1.2.3 switch=y r1=0.001 x1=0.001 r0=0.001 x0=0.001 Length=0.001 units=km enabled=false
New Line.1248725E:RAR0071 phases=3 Bus1=28656849.1.2.3 Bus2=28656850.1.2.3 switch=y r1=0.001 x1=0.001 r0=0.001 x0=0.001 Length=0.001 units=km
New Line.1029536E:ARGASCO phases=3 Bus1=28655208.1.2.3 Bus2=28655207.1.2.3 switch=y r1=0.001 x1=0.001 r0=0.001 x0=0.001 Length=0.001 units=km
New Line.28655269$D phases=3 Bus1=28655243.1.2.3 Bus2=28655219.1.2.3 switch=y r1=0.001 x1=0.001 r0=0.001 x0=0.001 Length=0.001 units=km
New Line.28655269$C phases=3 Bus1=28655243.1.2.3 Bus2=28655244.1.2.3 switch=y r1=0.001 x1=0.001 r0=0.001 x0=0.001 Length=0.001 units=km
New Line.ARGASCO$D phases=3 Bus1=28655220.1.2.3 Bus2=28655208.1.2.3 switch=y r1=0.001 x1=0.001 r0=0.001 x0=0.001 Length=0.001 units=km
New Line.28655265$C phases=3 Bus1=28655226.1.2.3 Bus2=28655225.1.2.3 switch=y r1=0.001 x1=0.001 r0=0.001 x0=0.001 Length=0.001 units=km
New Line.28655265$B phases=3 Bus1=28655225.1.2.3 Bus2=28655213.1.2.3 switch=y r1=0.001 x1=0.001 r0=0.001 x0=0.001 Length=0.001 units=km
New Line.B$ARGASCO phases=3 Bus1=28655207.1.2.3 Bus2=28655214.1.2.3 switch=y r1=0.001 x1=0.001 r0=0.001 x0=0.001 Length=0.001 units=km
New Line.219301359$219301368 phases=3 Bus1=219301339.1.2.3 Bus2=219301333.1.2.3 switch=y r1=0.001 x1=0.001 r0=0.001 x0=0.001 Length=0.001 units=km
New Line.219301368$RCS6552-4 phases=3 Bus1=219301339.1.2.3 Bus2=219301345.1.2.3 switch=y r1=0.001 x1=0.001 r0=0.001 x0=0.001 Length=0.001 units=km
New Line.219301350$219301359 phases=3 Bus1=219301333.1.2.3 Bus2=219301332.1.2.3 switch=y r1=0.001 x1=0.001 r0=0.001 x0=0.001 Length=0.001 units=km
New Line.GS8420-4$GS8420-5 phases=3 Bus1=221886124.1.2.3 Bus2=221886118.1.2.3 switch=y r1=0.001 x1=0.001 r0=0.001 x0=0.001 Length=0.001 units=km
New Line.GS6553-5$217801072 phases=3 Bus1=217801021.1.2.3 Bus2=217801015.1.2.3 switch=y r1=0.001 x1=0.001 r0=0.001 x0=0.001 Length=0.001 units=km
New Line.GS8420-3$GS8420-4 phases=3 Bus1=221886118.1.2.3 Bus2=221886112.1.2.3 switch=y r1=0.001 x1=0.001 r0=0.001 x0=0.001 Length=0.001 units=km
New Line.GS6553-4$GS6553-5 phases=3 Bus1=217801015.1.2.3 Bus2=217801009.1.2.3 switch=y r1=0.001 x1=0.001 r0=0.001 x0=0.001 Length=0.001 units=km
New Line.GS8420-2$GS8420-3 phases=3 Bus1=221886112.1.2.3 Bus2=221886106.1.2.3 switch=y r1=0.001 x1=0.001 r0=0.001 x0=0.001 Length=0.001 units=km
New Line.217801045$GS6553-4 phases=3 Bus1=217801009.1.2.3 Bus2=217801003.1.2.3 switch=y r1=0.001 x1=0.001 r0=0.001 x0=0.001 Length=0.001 units=km
New Line.221886129$GS8420-2 phases=3 Bus1=221886106.1.2.3 Bus2=221886105.1.2.3 switch=y r1=0.001 x1=0.001 r0=0.001 x0=0.001 Length=0.001 units=km
New Line.215479723 phases=2 Bus1=215479725.1.2 Bus2=215479726.1.2 switch=y r1=0.001 x1=0.001 r0=0.001 x0=0.001 Length=0.001 units=km
New Line.GS6553-2$217801045 phases=3 Bus1=217801003.1.2.3 Bus2=217800997.1.2.3 switch=y r1=0.001 x1=0.001 r0=0.001 x0=0.001 Length=0.001 units=km
New Line.GS6558-1$GS6558-2 phases=3 Bus1=221886292.1.2.3 Bus2=221886293.1.2.3 switch=y r1=0.001 x1=0.001 r0=0.001 x0=0.001 Length=0.001 units=km
New Line.217800798$217800808 phases=3 Bus1=217800768.1.2.3 Bus2=217800769.1.2.3 switch=y r1=0.001 x1=0.001 r0=0.001 x0=0.001 Length=0.001 units=km
New Line.217801026$GS6553-2 phases=3 Bus1=217800997.1.2.3 Bus2=217800996.1.2.3 switch=y r1=0.001 x1=0.001 r0=0.001 x0=0.001 Length=0.001 units=km
New Line.GS6558-2$GS6558-3 phases=3 Bus1=221886293.1.2.3 Bus2=221886299.1.2.3 switch=y r1=0.001 x1=0.001 r0=0.001 x0=0.001 Length=0.001 units=km
New Line.241127137 phases=2 Bus1=241127139.1.3 Bus2=241127140.1.3 switch=y r1=0.001 x1=0.001 r0=0.001 x0=0.001 Length=0.001 units=km
New Line.222919471 phases=3 Bus1=222919474.1.2.3 Bus2=222919473.1.2.3 switch=y r1=0.001 x1=0.001 r0=0.001 x0=0.001 Length=0.001 units=km
New Line.217800808$GS6555-3 phases=3 Bus1=217800769.1.2.3 Bus2=217800775.1.2.3 switch=y r1=0.001 x1=0.001 r0=0.001 x0=0.001 Length=0.001 units=km
New Line.GS6558-3$GS6558-4 phases=3 Bus1=221886299.1.2.3 Bus2=221886305.1.2.3 switch=y r1=0.001 x1=0.001 r0=0.001 x0=0.001 Length=0.001 units=km
New Line.215479634 phases=3 Bus1=215479636.1.2.3 Bus2=215479637.1.2.3 switch=y r1=0.001 x1=0.001 r0=0.001 x0=0.001 Length=0.001 units=km
New Line.241127111 phases=2 Bus1=241127114.1.3 Bus2=241127113.1.3 switch=y r1=0.001 x1=0.001 r0=0.001 x0=0.001 Length=0.001 units=km
New Line.221886541$221886550 phases=3 Bus1=221886499.1.2.3 Bus2=221886493.1.2.3 switch=y r1=0.001 x1=0.001 r0=0.001 x0=0.001 Length=0.001 units=km
New Line.222459753 phases=3 Bus1=222459755.1.2.3 Bus2=222459756.1.2.3 switch=y r1=0.001 x1=0.001 r0=0.001 x0=0.001 Length=0.001 units=km
New Line.240040699$GS5055-2 phases=3 Bus1=240040681.1.2.3 Bus2=240040682.1.2.3 switch=y r1=0.001 x1=0.001 r0=0.001 x0=0.001 Length=0.001 units=km
New Line.215480185 phases=3 Bus1=215480187.1.2.3 Bus2=215480188.1.2.3 switch=y r1=0.001 x1=0.001 r0=0.001 x0=0.001 Length=0.001 units=km
New Line.GS6555-4$GS6555-5 phases=3 Bus1=217800781.1.2.3 Bus2=217800787.1.2.3 switch=y r1=0.001 x1=0.001 r0=0.001 x0=0.001 Length=0.001 units=km
New Line.GS8422-4$221886541 phases=3 Bus1=221886493.1.2.3 Bus2=221886487.1.2.3 switch=y r1=0.001 x1=0.001 r0=0.001 x0=0.001 Length=0.001 units=km
New Line.222919498 phases=3 Bus1=222919500.1.2.3 Bus2=222919501.1.2.3 switch=y r1=0.001 x1=0.001 r0=0.001 x0=0.001 Length=0.001 units=km
New Line.222919529 phases=3 Bus1=222919531.1.2.3 Bus2=222919532.1.2.3 switch=y r1=0.001 x1=0.001 r0=0.001 x0=0.001 Length=0.001 units=km
New Line.146370507 phases=1 Bus1=146370509.1 Bus2=146370510.1 switch=y r1=0.001 x1=0.001 r0=0.001 x0=0.001 Length=0.001 units=km
New Line.GS6555-3$GS6555-4 phases=3 Bus1=217800775.1.2.3 Bus2=217800781.1.2.3 switch=y r1=0.001 x1=0.001 r0=0.001 x0=0.001 Length=0.001 units=km
New Line.GS6555-5$217800844 phases=3 Bus1=217800793.1.2.3 Bus2=217800787.1.2.3 switch=y r1=0.001 x1=0.001 r0=0.001 x0=0.001 Length=0.001 units=km
New Line.GS8422-3$GS8422-4 phases=3 Bus1=221886487.1.2.3 Bus2=221886481.1.2.3 switch=y r1=0.001 x1=0.001 r0=0.001 x0=0.001 Length=0.001 units=km
New Line.239690073 phases=3 Bus1=239690075.1.2.3 Bus2=239690076.1.2.3 switch=y r1=0.001 x1=0.001 r0=0.001 x0=0.001 Length=0.001 units=km
New Line.146370482 phases=1 Bus1=146370485.1 Bus2=146370484.1 switch=y r1=0.001 x1=0.001 r0=0.001 x0=0.001 Length=0.001 units=km
New Line.146370796 phases=1 Bus1=146370798.1 Bus2=146370799.1 switch=y r1=0.001 x1=0.001 r0=0.001 x0=0.001 Length=0.001 units=km
New Line.GS5055-3$240040726 phases=3 Bus1=240040688.1.2.3 Bus2=240040694.1.2.3 switch=y r1=0.001 x1=0.001 r0=0.001 x0=0.001 Length=0.001 units=km
New Line.215479854 phases=3 Bus1=215479856.1.2.3 Bus2=215479857.1.2.3 switch=y r1=0.001 x1=0.001 r0=0.001 x0=0.001 Length=0.001 units=km
New Line.219247223 phases=3 Bus1=219247226.1.2.3 Bus2=219247225.1.2.3 switch=y r1=0.001 x1=0.001 r0=0.001 x0=0.001 Length=0.001 units=km
New Line.PME0048-2$PME0048-1 phases=3 Bus1=222459586.1.2.3 Bus2=222459585.1.2.3 switch=y r1=0.001 x1=0.001 r0=0.001 x0=0.001 Length=0.001 units=km
New Line.222608673 phases=3 Bus1=222608676.1.2.3 Bus2=222608675.1.2.3 switch=y r1=0.001 x1=0.001 r0=0.001 x0=0.001 Length=0.001 units=km
New Line.235557477 phases=2 Bus1=235557479.1.3 Bus2=235557480.1.3 switch=y r1=0.001 x1=0.001 r0=0.001 x0=0.001 Length=0.001 units=km
New Line.217801483 phases=2 Bus1=217801485.1.2 Bus2=217801486.1.2 switch=y r1=0.001 x1=0.001 r0=0.001 x0=0.001 Length=0.001 units=km
New Line.221886504$GS8422-2 phases=3 Bus1=221886475.1.2.3 Bus2=221886474.1.2.3 switch=y r1=0.001 x1=0.001 r0=0.001 x0=0.001 Length=0.001 units=km
New Line.238313872 phases=3 Bus1=238313874.1.2.3 Bus2=238313875.1.2.3 switch=y r1=0.001 x1=0.001 r0=0.001 x0=0.001 Length=0.001 units=km
New Line.221398691 phases=3 Bus1=221398693.1.2.3 Bus2=221398694.1.2.3 switch=y r1=0.001 x1=0.001 r0=0.001 x0=0.001 Length=0.001 units=km
New Line.222608761 phases=3 Bus1=222608763.1.2.3 Bus2=222608764.1.2.3 switch=y r1=0.001 x1=0.001 r0=0.001 x0=0.001 Length=0.001 units=km
New Line.PME1377-2$PME1377-1 phases=3 Bus1=215479779.1.2.3 Bus2=215479778.1.2.3 switch=y r1=0.001 x1=0.001 r0=0.001 x0=0.001 Length=0.001 units=km
New Line.222459726 phases=2 Bus1=222459729.2.3 Bus2=222459728.2.3 switch=y r1=0.001 x1=0.001 r0=0.001 x0=0.001 Length=0.001 units=km
New Line.238313899 phases=3 Bus1=238313902.1.2.3 Bus2=238313901.1.2.3 switch=y r1=0.001 x1=0.001 r0=0.001 x0=0.001 Length=0.001 units=km
New Line.146370455 phases=1 Bus1=146370457.1 Bus2=146370458.1 switch=y r1=0.001 x1=0.001 r0=0.001 x0=0.001 Length=0.001 units=km
New Line.219504109 phases=3 Bus1=219504112.1.2.3 Bus2=219504111.1.2.3 switch=y r1=0.001 x1=0.001 r0=0.001 x0=0.001 Length=0.001 units=km
New Line.221398716 phases=3 Bus1=221398719.1.2.3 Bus2=221398718.1.2.3 switch=y r1=0.001 x1=0.001 r0=0.001 x0=0.001 Length=0.001 units=km
New Line.239690046 phases=3 Bus1=239690049.1.2.3 Bus2=239690048.1.2.3 switch=y r1=0.001 x1=0.001 r0=0.001 x0=0.001 Length=0.001 units=km
New Line.222459699 phases=2 Bus1=222459701.2.3 Bus2=222459702.2.3 switch=y r1=0.001 x1=0.001 r0=0.001 x0=0.001 Length=0.001 units=km
New Line.237871123 phases=3 Bus1=237871125.1.2.3 Bus2=237871126.1.2.3 switch=y r1=0.001 x1=0.001 r0=0.001 x0=0.001 Length=0.001 units=km
New Line.238314080$238314089 phases=3 Bus1=238314047.1.2.3 Bus2=238314041.1.2.3 switch=y r1=0.001 x1=0.001 r0=0.001 x0=0.001 Length=0.001 units=km
New Line.240041156 phases=3 Bus1=240041159.1.2.3 Bus2=240041158.1.2.3 switch=y r1=0.001 x1=0.001 r0=0.001 x0=0.001 Length=0.001 units=km
New Line.219504141 phases=3 Bus1=219504143.1.2.3 Bus2=219504144.1.2.3 switch=y r1=0.001 x1=0.001 r0=0.001 x0=0.001 Length=0.001 units=km
New Line.221398664 phases=3 Bus1=221398666.1.2.3 Bus2=221398667.1.2.3 switch=y r1=0.001 x1=0.001 r0=0.001 x0=0.001 Length=0.001 units=km
New Line.146370532 phases=1 Bus1=146370535.1 Bus2=146370534.1 switch=y r1=0.001 x1=0.001 r0=0.001 x0=0.001 Length=0.001 units=km
New Line.238314071$238314080 phases=3 Bus1=238314041.1.2.3 Bus2=238314035.1.2.3 switch=y r1=0.001 x1=0.001 r0=0.001 x0=0.001 Length=0.001 units=km
New Line.239689992 phases=3 Bus1=239689994.1.2.3 Bus2=239689995.1.2.3 switch=y r1=0.001 x1=0.001 r0=0.001 x0=0.001 Length=0.001 units=km
New Line.240040872 phases=3 Bus1=240040875.1.2.3 Bus2=240040874.1.2.3 switch=y r1=0.001 x1=0.001 r0=0.001 x0=0.001 Length=0.001 units=km
New Line.240041217 phases=3 Bus1=240041220.1.2.3 Bus2=240041219.1.2.3 switch=y r1=0.001 x1=0.001 r0=0.001 x0=0.001 Length=0.001 units=km
New Line.222459678$P5750049 phases=3 Bus1=222459671.1.2.3 Bus2=222459672.1.2.3 switch=y r1=0.001 x1=0.001 r0=0.001 x0=0.001 Length=0.001 units=km
New Line.GS6677-2$238314071 phases=3 Bus1=238314035.1.2.3 Bus2=238314029.1.2.3 switch=y r1=0.001 x1=0.001 r0=0.001 x0=0.001 Length=0.001 units=km
New Line.240041183 phases=3 Bus1=240041185.1.2.3 Bus2=240041186.1.2.3 switch=y r1=0.001 x1=0.001 r0=0.001 x0=0.001 Length=0.001 units=km
New Line.215479866 phases=3 Bus1=215479868.1.2.3 Bus2=215479869.1.2.3 switch=y r1=0.001 x1=0.001 r0=0.001 x0=0.001 Length=0.001 units=km
New Line.219247345 phases=3 Bus1=221398642.1.2.3 Bus2=221398641.1.2.3 switch=y r1=0.001 x1=0.001 r0=0.001 x0=0.001 Length=0.001 units=km
New Line.238314052$GS6677-2 phases=3 Bus1=238314029.1.2.3 Bus2=238314028.1.2.3 switch=y r1=0.001 x1=0.001 r0=0.001 x0=0.001 Length=0.001 units=km
New Line.238389411 phases=3 Bus1=238389413.1.2.3 Bus2=238389414.1.2.3 switch=y r1=0.001 x1=0.001 r0=0.001 x0=0.001 Length=0.001 units=km
New Line.239690019 phases=3 Bus1=239690022.1.2.3 Bus2=239690021.1.2.3 switch=y r1=0.001 x1=0.001 r0=0.001 x0=0.001 Length=0.001 units=km
New Line.240041274 phases=3 Bus1=240041276.1.2.3 Bus2=240041277.1.2.3 switch=y r1=0.001 x1=0.001 r0=0.001 x0=0.001 Length=0.001 units=km
New Line.146370687 phases=1 Bus1=146370689.1 Bus2=146370690.1 switch=y r1=0.001 x1=0.001 r0=0.001 x0=0.001 Length=0.001 units=km
New Line.146370823 phases=1 Bus1=146370826.1 Bus2=146370825.1 switch=y r1=0.001 x1=0.001 r0=0.001 x0=0.001 Length=0.001 units=km
New Line.PME0904-2$PME0904-1 phases=3 Bus1=219503968.1.2.3 Bus2=219503967.1.2.3 switch=y r1=0.001 x1=0.001 r0=0.001 x0=0.001 Length=0.001 units=km
New Line.240041136$P5773530 phases=3 Bus1=240041129.1.2.3 Bus2=240041130.1.2.3 switch=y r1=0.001 x1=0.001 r0=0.001 x0=0.001 Length=0.001 units=km
New Line.215479921$P5741378 phases=3 Bus1=215479914.1.2.3 Bus2=215479915.1.2.3 switch=y r1=0.001 x1=0.001 r0=0.001 x0=0.001 Length=0.001 units=km
New Line.146370769 phases=1 Bus1=146370771.1 Bus2=146370772.1 switch=y r1=0.001 x1=0.001 r0=0.001 x0=0.001 Length=0.001 units=km
New Line.219247314 phases=3 Bus1=219247316.1.2.3 Bus2=219247317.1.2.3 switch=y r1=0.001 x1=0.001 r0=0.001 x0=0.001 Length=0.001 units=km
New Line.238314278 phases=2 Bus1=242088968.1.2 Bus2=238314281.1.2 switch=y r1=0.001 x1=0.001 r0=0.001 x0=0.001 Length=0.001 units=km
New Line.PME3771-3$PME3771-4 phases=3 Bus1=238388885.1.2.3 Bus2=238388884.1.2.3 switch=y r1=0.001 x1=0.001 r0=0.001 x0=0.001 Length=0.001 units=km
New Line.239689959 phases=3 Bus1=239689961.1.2.3 Bus2=239689962.1.2.3 switch=y r1=0.001 x1=0.001 r0=0.001 x0=0.001 Length=0.001 units=km
New Line.240041254$P5773531 phases=3 Bus1=240041247.1.2.3 Bus2=240041248.1.2.3 switch=y r1=0.001 x1=0.001 r0=0.001 x0=0.001 Length=0.001 units=km
New Line.PME3775-2$PME3775-1 phases=3 Bus1=238389336.1.2.3 Bus2=238389335.1.2.3 switch=y r1=0.001 x1=0.001 r0=0.001 x0=0.001 Length=0.001 units=km
New Line.219504180 phases=3 Bus1=219504183.1.2.3 Bus2=219504182.1.2.3 switch=y r1=0.001 x1=0.001 r0=0.001 x0=0.001 Length=0.001 units=km
New Line.238389198 phases=3 Bus1=238389201.1.2.3 Bus2=238389200.1.2.3 switch=y r1=0.001 x1=0.001 r0=0.001 x0=0.001 Length=0.001 units=km
New Line.GS3378-5$GS3378-6 phases=3 Bus1=242169057.1.2.3 Bus2=242169051.1.2.3 switch=y r1=0.001 x1=0.001 r0=0.001 x0=0.001 Length=0.001 units=km
New Line.238389225 phases=3 Bus1=238389228.1.2.3 Bus2=238389227.1.2.3 switch=y r1=0.001 x1=0.001 r0=0.001 x0=0.001 Length=0.001 units=km
New Line.242169090$GS3378-5 phases=3 Bus1=242169051.1.2.3 Bus2=242169045.1.2.3 switch=y r1=0.001 x1=0.001 r0=0.001 x0=0.001 Length=0.001 units=km
New Line.146370739 phases=1 Bus1=146370742.1 Bus2=146370741.1 switch=y r1=0.001 x1=0.001 r0=0.001 x0=0.001 Length=0.001 units=km
New Line.146370662 phases=1 Bus1=146370664.1 Bus2=146370665.1 switch=y r1=0.001 x1=0.001 r0=0.001 x0=0.001 Length=0.001 units=km
New Line.146370612 phases=1 Bus1=146370615.1 Bus2=146370614.1 switch=y r1=0.001 x1=0.001 r0=0.001 x0=0.001 Length=0.001 units=km
New Line.146370637 phases=1 Bus1=146370640.1 Bus2=146370639.1 switch=y r1=0.001 x1=0.001 r0=0.001 x0=0.001 Length=0.001 units=km
New Line.237670501 phases=3 Bus1=237670503.1.2.3 Bus2=237670504.1.2.3 switch=y r1=0.001 x1=0.001 r0=0.001 x0=0.001 Length=0.001 units=km
New Line.146370557 phases=1 Bus1=146370559.1 Bus2=146370560.1 switch=y r1=0.001 x1=0.001 r0=0.001 x0=0.001 Length=0.001 units=km
New Line.146370587 phases=1 Bus1=146370589.1 Bus2=146370590.1 switch=y r1=0.001 x1=0.001 r0=0.001 x0=0.001 Length=0.001 units=km
New Line.236395910 phases=3 Bus1=236395912.1.2.3 Bus2=236395913.1.2.3 switch=y r1=0.001 x1=0.001 r0=0.001 x0=0.001 Length=0.001 units=km
New Line.219504207 phases=3 Bus1=219504209.1.2.3 Bus2=219504210.1.2.3 switch=y r1=0.001 x1=0.001 r0=0.001 x0=0.001 Length=0.001 units=km
New Line.238389305 phases=3 Bus1=238389307.1.2.3 Bus2=238389308.1.2.3 switch=y r1=0.001 x1=0.001 r0=0.001 x0=0.001 Length=0.001 units=km
New Line.238389475 phases=3 Bus1=238389478.1.2.3 Bus2=238389477.1.2.3 switch=y r1=0.001 x1=0.001 r0=0.001 x0=0.001 Length=0.001 units=km
New Line.GS3378-3$242169090 phases=3 Bus1=242169045.1.2.3 Bus2=242169039.1.2.3 switch=y r1=0.001 x1=0.001 r0=0.001 x0=0.001 Length=0.001 units=km
New Line.238389264 phases=3 Bus1=238389266.1.2.3 Bus2=238389267.1.2.3 switch=y r1=0.001 x1=0.001 r0=0.001 x0=0.001 Length=0.001 units=km
New Line.PME3765-3$PME3765-4 phases=3 Bus1=240533450.1.2.3 Bus2=240533449.1.2.3 switch=y r1=0.001 x1=0.001 r0=0.001 x0=0.001 Length=0.001 units=km
New Line.242089245 phases=3 Bus1=242089247.1.2.3 Bus2=242089248.1.2.3 switch=y r1=0.001 x1=0.001 r0=0.001 x0=0.001 Length=0.001 units=km
New Line.219504053$P5750906 phases=3 Bus1=219504046.1.2.3 Bus2=219504047.1.2.3 switch=y r1=0.001 x1=0.001 r0=0.001 x0=0.001 Length=0.001 units=km
New Line.238389502 phases=3 Bus1=238389504.1.2.3 Bus2=238389505.1.2.3 switch=y r1=0.001 x1=0.001 r0=0.001 x0=0.001 Length=0.001 units=km
New Line.217801390 phases=3 Bus1=217801392.1.2.3 Bus2=217801393.1.2.3 switch=y r1=0.001 x1=0.001 r0=0.001 x0=0.001 Length=0.001 units=km
New Line.220741679 phases=3 Bus1=220741681.1.2.3 Bus2=220741682.1.2.3 switch=y r1=0.001 x1=0.001 r0=0.001 x0=0.001 Length=0.001 units=km
New Line.238389455$P5773776 phases=3 Bus1=238389448.1.2.3 Bus2=238389449.1.2.3 switch=y r1=0.001 x1=0.001 r0=0.001 x0=0.001 Length=0.001 units=km
New Line.240345530 phases=3 Bus1=240345532.1.2.3 Bus2=240345533.1.2.3 switch=y r1=0.001 x1=0.001 r0=0.001 x0=0.001 Length=0.001 units=km
New Line.240533659 phases=3 Bus1=240533661.1.2.3 Bus2=240533662.1.2.3 switch=y r1=0.001 x1=0.001 r0=0.001 x0=0.001 Length=0.001 units=km
New Line.PME5101-2$PME5101-1 phases=3 Bus1=242089105.1.2.3 Bus2=242089104.1.2.3 switch=y r1=0.001 x1=0.001 r0=0.001 x0=0.001 Length=0.001 units=km
New Line.242169423 phases=3 Bus1=242169425.1.2.3 Bus2=242169426.1.2.3 switch=y r1=0.001 x1=0.001 r0=0.001 x0=0.001 Length=0.001 units=km
New Line.197200110 phases=3 Bus1=197200112.1.2.3 Bus2=197200113.1.2.3 switch=y r1=0.001 x1=0.001 r0=0.001 x0=0.001 Length=0.001 units=km
New Line.GS3374-5$242169608 phases=3 Bus1=242169557.1.2.3 Bus2=242169551.1.2.3 switch=y r1=0.001 x1=0.001 r0=0.001 x0=0.001 Length=0.001 units=km
New Line.28656907$B phases=3 Bus1=28656867.1.2.3 Bus2=28656855.1.2.3 switch=y r1=0.001 x1=0.001 r0=0.001 x0=0.001 Length=0.001 units=km
New Line.28656907$C phases=3 Bus1=28656867.1.2.3 Bus2=28656868.1.2.3 switch=y r1=0.001 x1=0.001 r0=0.001 x0=0.001 Length=0.001 units=km
New Line.242089272 phases=3 Bus1=242089275.1.2.3 Bus2=242089274.1.2.3 switch=y r1=0.001 x1=0.001 r0=0.001 x0=0.001 Length=0.001 units=km
New Line.GS3374-4$GS3374-5 phases=3 Bus1=242169551.1.2.3 Bus2=242169545.1.2.3 switch=y r1=0.001 x1=0.001 r0=0.001 x0=0.001 Length=0.001 units=km
New Line.B$RAR0071 phases=3 Bus1=28656856.1.2.3 Bus2=28656849.1.2.3 switch=y r1=0.001 x1=0.001 r0=0.001 x0=0.001 Length=0.001 units=km
New Line.28656911$C phases=3 Bus1=28656886.1.2.3 Bus2=28656885.1.2.3 switch=y r1=0.001 x1=0.001 r0=0.001 x0=0.001 Length=0.001 units=km
New Line.28656911$D phases=3 Bus1=28656885.1.2.3 Bus2=28656861.1.2.3 switch=y r1=0.001 x1=0.001 r0=0.001 x0=0.001 Length=0.001 units=km
New Line.RAR0071$D phases=3 Bus1=28656850.1.2.3 Bus2=28656862.1.2.3 switch=y r1=0.001 x1=0.001 r0=0.001 x0=0.001 Length=0.001 units=km
New Line.197200088 phases=3 Bus1=197200091.1.2.3 Bus2=197200090.1.2.3 switch=y r1=0.001 x1=0.001 r0=0.001 x0=0.001 Length=0.001 units=km
New Line.197200100 phases=2 Bus1=197200103.1.2 Bus2=197200102.1.2 switch=y r1=0.001 x1=0.001 r0=0.001 x0=0.001 Length=0.001 units=km
New Line.GS3374-3$GS3374-4 phases=3 Bus1=242169545.1.2.3 Bus2=242169539.1.2.3 switch=y r1=0.001 x1=0.001 r0=0.001 x0=0.001 Length=0.001 units=km
New Line.GS3374-2$GS3374-3 phases=3 Bus1=242169539.1.2.3 Bus2=242169533.1.2.3 switch=y r1=0.001 x1=0.001 r0=0.001 x0=0.001 Length=0.001 units=km
New Line.252227143 phases=2 Bus1=252227145.1.3 Bus2=252227146.1.3 switch=y r1=0.001 x1=0.001 r0=0.001 x0=0.001 Length=0.001 units=km
New Line.197200120 phases=2 Bus1=197200122.1.2 Bus2=197200123.1.2 switch=y r1=0.001 x1=0.001 r0=0.001 x0=0.001 Length=0.001 units=km
New Line.242169562$GS3374-2 phases=3 Bus1=242169533.1.2.3 Bus2=242169532.1.2.3 switch=y r1=0.001 x1=0.001 r0=0.001 x0=0.001 Length=0.001 units=km
New Line.PME5137-4$PME5137-2 phases=3 Bus1=242543328.1.2.3 Bus2=242543329.1.2.3 switch=y r1=0.001 x1=0.001 r0=0.001 x0=0.001 Length=0.001 units=km
New Line.210302986 phases=2 Bus1=210302988.1.3 Bus2=210302989.1.3 switch=y r1=0.001 x1=0.001 r0=0.001 x0=0.001 Length=0.001 units=km
New Line.242170074 phases=2 Bus1=242170076.1.2 Bus2=242170077.1.2 switch=y r1=0.001 x1=0.001 r0=0.001 x0=0.001 Length=0.001 units=km
New Line.242543269 phases=3 Bus1=242543271.1.2.3 Bus2=242543272.1.2.3 switch=y r1=0.001 x1=0.001 r0=0.001 x0=0.001 Length=0.001 units=km
New Line.244895707 phases=2 Bus1=244895709.2.3 Bus2=244895710.2.3 switch=y r1=0.001 x1=0.001 r0=0.001 x0=0.001 Length=0.001 units=km
...